3
0. Frequency: 28.032443944443486i cm^-1
O   0.000000   0.000000  -0.071176  -0.024129  -0.169429   0.161961
H   0.000000  -0.891619   0.564809  -0.024151  -0.169471   0.161963
H   0.000000   0.891619   0.564809  -0.024151  -0.169482   0.162029

3
1. Frequency: 10.997259614554299i cm^-1
O   0.000000   0.000000  -0.071176   0.219152   0.041442   0.076006
H   0.000000  -0.891619   0.564809   0.219173   0.041445   0.076009
H   0.000000   0.891619   0.564809   0.219173   0.041445   0.076006

3
2. Frequency: 30.106845457597995 cm^-1
O   0.000000   0.000000  -0.071176  -0.083146   0.158427   0.153345
H   0.000000  -0.891619   0.564809  -0.083084   0.158367   0.153270
H   0.000000   0.891619   0.564809  -0.083085   0.158384   0.153344

3
3. Frequency: 2152.9847880733228 cm^-1
O   0.000000   0.000000  -0.071176  -0.083647  -0.000052  -0.000012
H   0.000000  -0.891619   0.564809   0.663773   0.000242   0.000368
H   0.000000   0.891619   0.564809   0.663774   0.000232  -0.000356

3
4. Frequency: 2249.1286616047237 cm^-1
O   0.000000   0.000000  -0.071176  -0.000044   0.047855  -0.000035
H   0.000000  -0.891619   0.564809  -0.000500  -0.379638  -0.577643
H   0.000000   0.891619   0.564809   0.001372  -0.379858   0.577755

3
5. Frequency: 2293.4086869075804 cm^-1
O   0.000000   0.000000  -0.071176  -0.000000   0.000064  -0.000002
H   0.000000  -0.891619   0.564809   0.704357  -0.000466  -0.000748
H   0.000000   0.891619   0.564809  -0.704355  -0.000555   0.000778

3
6. Frequency: 3500.283201500647 cm^-1
O   0.000000   0.000000  -0.071176  -0.000001   0.000007  -0.067221
H   0.000000  -0.891619   0.564809  -0.000058   0.419262   0.533544
H   0.000000   0.891619   0.564809   0.000020  -0.419105   0.533312

3
7. Frequency: 4411.38683226728 cm^-1
O   0.000000   0.000000  -0.071176   0.000001  -0.000048   0.049781
H   0.000000  -0.891619   0.564809  -0.000018   0.566362  -0.395227
H   0.000000   0.891619   0.564809   0.000034  -0.565721  -0.394834

3
8. Frequency: 4674.620984939834 cm^-1
O   0.000000   0.000000  -0.071176  -0.000001  -0.068606  -0.000021
H   0.000000  -0.891619   0.564809  -0.000010   0.544100  -0.402727
H   0.000000   0.891619   0.564809  -0.000026   0.544727   0.403205

